6

 O   -1.551007000000   -0.114520000000    0.000000000000
 H   -1.934259000000    0.762503000000    0.000000000000
 H   -0.599677000000    0.040712000000    0.000000000000
 O    1.350625000000    0.111469000000    0.000000000000
 H    1.680398000000   -0.373741000000   -0.758561000000
 H    1.680398000000   -0.373741000000    0.758561000000
